/*--------------------------------*- C++ -*----------------------------------*\
| =========                 |                                                 |
| \\      /  F ield         | foam-extend: Open Source CFD                    |
|  \\    /   O peration     | Version:     3.0                                |
|   \\  /    A nd           | Web:         http://www.extend-project.de       |
|    \\/     M anipulation  |                                                 |
\*---------------------------------------------------------------------------*/
FoamFile
{
    version     2.0;
    format      ascii;
    class       dictionary;
    object      decomposeParDict;
}
// * * * * * * * * * * * * * * * * * * * * * * * * * * * * * * * * * * * * * //

numberOfSubdomains 24;

method          simple;
//method          hierarchical;
//method          metis;
//method          parMetis;

simpleCoeffs
{
    n               (3 4 2);
    delta           0.001;
}

hierarchicalCoeffs
{
    n               (2 3 2);
    delta           1.00;
    order           xyz;
}

manualCoeffs
{
    dataFile        "cellDecomposition";
}

metisCoeffs
{
    //n                   (5 1 1);
    //cellWeightsFile     "constant/cellWeightsFile";
}

// ************************************************************************* //
